*Heading
** Job name: Job-mesh-demo2 Model name: Model-mesh-demo2
** Generated by: Abaqus/CAE 2022
*Preprint, echo=NO, model=NO, history=NO, contact=NO
**
** PARTS
**
*Part, name=Part-1
*Node
      1,           0.,         160.,           0.
      2,          40.,         160.,           0.
      3,          40.,         200.,           0.
      4,           0.,         200.,           0.
      5,           0.,         120.,           0.
      6,          40.,         120.,           0.
      7,          80.,         160.,           0.
      8,          80.,         200.,           0.
      9,           0.,          80.,           0.
     10,          40.,          80.,           0.
     11,          80.,         120.,           0.
     12,         120.,         160.,           0.
     13,         120.,         200.,           0.
     14,         160.,         200.,           0.
     15,         160.,         160.,           0.
     16,         200.,         160.,           0.
     17,         200.,         200.,           0.
     18,          40.,          40.,           0.
     19,           0.,          40.,           0.
     20,           0.,           0.,           0.
** ... 10181 like lines cut
*Element, type=S3
  1,    1,   37, 1177
  2, 1177,  112,    1
  3,   37,   38, 1178
  4, 1178, 1177,   37
  5,   38,   39, 1179
  6, 1179, 1178,   38
  7,   39,   40, 1180
  8, 1180, 1179,   39
  9,   40,   41, 1181
 10, 1181, 1180,   40
 11,   41,   42, 1182
 12, 1182, 1181,   41
 13,   42,   43, 1183
 14, 1183, 1182,   42
 15,   43,   44, 1184
 16, 1184, 1183,   43
 17,   44,   45, 1185
 18, 1185, 1184,   44
 19,   45,   46, 1186
 20, 1186, 1185,   45
** ... 19980 like lines cut
*Nset, nset=_PickedSet3, internal, generate
     1,  10201,      1
*Elset, elset=_PickedSet3, internal, generate
     1,  20000,      1
** Section: Section-1
*Shell Section, elset=_PickedSet3, material=Material-1
2., 5
*End Part
**  
**
** ASSEMBLY
**
*Assembly, name=Assembly
**  
*Instance, name=Part-1-1, part=Part-1
*End Instance
**  
*Node
      1,         100.,         200.,           0.
*Node
      2,         100.,           0.,           0.
*Nset, nset=_PickedSet69, internal, instance=Part-1-1
    1,    3,    4,    5,    8,    9,   13,   14,   16,   17,   19,   20,   21,   25,   26,   30
   31,   33,   35,   36,   75,   76,   77,   78,   79,   80,   81,   82,   83,   84,   85,   86
   87,   88,   89,   90,   91,   92,   93,   94,   95,   96,   97,   98,   99,  100,  101,  102
  103,  104,  105,  106,  107,  108,  109,  110,  111,  112,  113,  114,  115,  116,  117,  118
  119,  120,  121,  122,  123,  124,  125,  126,  127,  128,  129,  130,  131,  208,  209,  210
  211,  212,  213,  214,  215,  216,  217,  218,  219,  220,  221,  222,  223,  224,  225,  226
  227,  228,  229,  230,  231,  232,  233,  234,  235,  236,  237,  238,  239,  240,  241,  242
  243,  244,  245,  360,  361,  362,  363,  364,  365,  366,  367,  368,  369,  370,  371,  372
  373,  374,  375,  376,  377,  378,  417,  418,  419,  420,  421,  422,  423,  424,  425,  426
  427,  428,  429,  430,  431,  432,  433,  434,  435,  436,  437,  438,  439,  440,  441,  442
  443,  444,  445,  446,  447,  448,  449,  450,  451,  452,  453,  454,  474,  475,  476,  477
  478,  479,  480,  481,  482,  483,  484,  485,  486,  487,  488,  489,  490,  491,  492,  493
  494,  495,  496,  497,  498,  499,  500,  501,  502,  503,  504,  505,  506,  507,  508,  509
  510,  511,  531,  532,  533,  534,  535,  536,  537,  538,  539,  540,  541,  542,  543,  544
  545,  546,  547,  548,  549,  645,  646,  647,  648,  649,  650,  651,  652,  653,  654,  655
  656,  657,  658,  659,  660,  661,  662,  663,  721,  722,  723,  724,  725,  726,  727,  728
  729,  730,  731,  732,  733,  734,  735,  736,  737,  738,  739,  740,  741,  742,  743,  744
  745,  746,  747,  748,  749,  750,  751,  752,  753,  754,  755,  756,  757,  758,  911,  912
  913,  914,  915,  916,  917,  918,  919,  920,  921,  922,  923,  924,  925,  926,  927,  928
  929,  930,  931,  932,  933,  934,  935,  936,  937,  938,  939,  940,  941,  942,  943,  944
** ... 5 like lines cut
*Elset, elset=_PickedSet69, internal, instance=Part-1-1
     2,    42,    82,   122,   162,   202,   242,   282,   322,   362,   402,   442,   482,   522,   562,   602
   642,   682,   722,   762,   764,   766,   768,   770,   772,   774,   776,   778,   780,   782,   784,   786
   788,   790,   792,   794,   796,   798,   800,   839,   879,   919,   959,   999,  1039,  1079,  1119,  1159
  1199,  1239,  1279,  1319,  1359,  1399,  1439,  1479,  1519,  1559,  1599,  1602,  1642,  1682,  1722,  1762
  1802,  1842,  1882,  1922,  1962,  2002,  2042,  2082,  2122,  2162,  2202,  2242,  2282,  2322,  2362,  2439
  2479,  2519,  2559,  2599,  2639,  2679,  2719,  2759,  2799,  2839,  2879,  2919,  2959,  2999,  3039,  3079
  3119,  3159,  3199,  4002,  4042,  4082,  4122,  4162,  4202,  4242,  4282,  4322,  4362,  4402,  4442,  4482
  4522,  4562,  4602,  4642,  4682,  4722,  4762,  4802,  4842,  4882,  4922,  4962,  5002,  5042,  5082,  5122
  5162,  5202,  5242,  5282,  5322,  5362,  5402,  5442,  5482,  5522,  5562,  5564,  5566,  5568,  5570,  5572
  5574,  5576,  5578,  5580,  5582,  5584,  5586,  5588,  5590,  5592,  5594,  5596,  5598,  5600,  5639,  5679
  5719,  5759,  5799,  5839,  5879,  5919,  5959,  5999,  6039,  6079,  6119,  6159,  6199,  6239,  6279,  6319
  6359,  6362,  6364,  6366,  6368,  6370,  6372,  6374,  6376,  6378,  6380,  6382,  6384,  6386,  6388,  6390
  6392,  6394,  6396,  6398,  6399,  6400,  6439,  6479,  6519,  6559,  6599,  6639,  6679,  6719,  6759,  6799
  6839,  6879,  6919,  6959,  6999,  7039,  7079,  7119,  7159,  7199,  8839,  8879,  8919,  8959,  8999,  9039
  9079,  9119,  9159,  9199,  9239,  9279,  9319,  9359,  9399,  9439,  9479,  9519,  9559,  9599,  9602,  9642
  9682,  9722,  9762,  9802,  9842,  9882,  9922,  9962, 10002, 10042, 10082, 10122, 10162, 10202, 10242, 10282
 10322, 10362, 10439, 10479, 10519, 10559, 10599, 10639, 10679, 10719, 10759, 10799, 10839, 10879, 10919, 10959
 10999, 11039, 11079, 11119, 11159, 11199, 13602, 13642, 13682, 13722, 13762, 13802, 13842, 13882, 13922, 13962
 14002, 14042, 14082, 14122, 14162, 14202, 14242, 14282, 14322, 14362, 14439, 14479, 14519, 14559, 14599, 14639
 14679, 14719, 14759, 14799, 14839, 14879, 14919, 14959, 14999, 15039, 15079, 15119, 15159, 15199, 15202, 15242
** ... 5 like lines cut
*Nset, nset=_PickedSet70, internal, instance=Part-1-1
 20,
*Nset, nset=_PickedSet71, internal, instance=Part-1-1
 36,
*Nset, nset=_PickedSet75, internal
 1,
*Nset, nset=_PickedSet77, internal
 2,
*Nset, nset=_PickedSet78, internal
 1,
*Nset, nset=_PickedSet79, internal
 2,
*Elset, elset=__PickedSurf74_E2, internal, instance=Part-1-1, generate
 4002,  4762,    40
*Surface, type=ELEMENT, name=_PickedSurf74, internal
__PickedSurf74_E2, E2
*Elset, elset=__PickedSurf76_E2, internal, instance=Part-1-1, generate
 14439,  15199,     40
*Surface, type=ELEMENT, name=_PickedSurf76, internal
__PickedSurf76_E2, E2
** Constraint: Constraint-1
*Coupling, constraint name=Constraint-1, ref node=_PickedSet75, surface=_PickedSurf74
*Distributing, weighting method=UNIFORM, coupling=STRUCTURAL
** Constraint: Constraint-2
*Coupling, constraint name=Constraint-2, ref node=_PickedSet77, surface=_PickedSurf76
*Distributing, weighting method=UNIFORM, coupling=STRUCTURAL
*End Assembly
** 
** MATERIALS
** 
*Material, name=Material-1
*Elastic
31000., 0.33
** 
** BOUNDARY CONDITIONS
** 
** Name: BC-1 Type: Displacement/Rotation
*Boundary
_PickedSet69, 3, 3
** Name: BC-2 Type: Displacement/Rotation
*Boundary
_PickedSet70, 1, 1
_PickedSet70, 2, 2
** Name: BC-3 Type: Displacement/Rotation
*Boundary
_PickedSet71, 2, 2
** ----------------------------------------------------------------
** 
** STEP: Step-1
** 
*Step, name=Step-1, nlgeom=NO, perturbation
*Buckle
10, , 18, 30
** 
** BOUNDARY CONDITIONS
** 
** Name: BC-1 Type: Displacement/Rotation
*Boundary, op=NEW, load case=1
_PickedSet69, 3, 3
*Boundary, op=NEW, load case=2
_PickedSet69, 3, 3
** Name: BC-2 Type: Displacement/Rotation
*Boundary, op=NEW, load case=1
_PickedSet70, 1, 1
_PickedSet70, 2, 2
*Boundary, op=NEW, load case=2
_PickedSet70, 1, 1
_PickedSet70, 2, 2
** Name: BC-3 Type: Displacement/Rotation
*Boundary, op=NEW, load case=1
_PickedSet71, 2, 2
*Boundary, op=NEW, load case=2
_PickedSet71, 2, 2
** 
** LOADS
** 
** Name: Load-1   Type: Concentrated force
*Cload
_PickedSet78, 2, -5000.
** Name: Load-2   Type: Concentrated force
*Cload
_PickedSet79, 2, 5000.
** 
** OUTPUT REQUESTS
** 
*Restart, write, frequency=0
** 
** FIELD OUTPUT: F-Output-1
** 
*Output, field
*Node Output
U, 
*Element Output, directions=YES
S, 
*End Step
